THERMO

   300.000  1000.000  5000.000

!!!!!----------https://web.stanford.edu/group/haiwanglab/FFCM2/assets/data/optmodel/FFCM2_thermo.txt----------!!!!!

H                 L 6/94H   1    0    0    0G   200.000  6000.000 1000.        1! Goos-Burcat-Ruscic-thermodatabase; Y. Tao 25.05.2012

 0.25000000E+01 0.00000000E+00 0.00000000E+00 0.00000000E+00 0.00000000E+00    2! Atomic hydrogen

 0.25473660E+05-0.44668285E+00 0.25000000E+01 0.00000000E+00 0.00000000E+00    3! CAS: 12385-13-6

 0.00000000E+00 0.00000000E+00 0.25473660E+05-0.44668285E+00                   4! 217.997805 +- 0.000008 kJ/mol ATcT 31.01.2011

H2                tpis78H   2    0    0    0G   200.000  6000.000 1000.        1! Goos-Burcat-Ruscic-thermodatabase; Y. Tao 25.05.2012

 2.93286575E+00 8.26608026E-04-1.46402364E-07 1.54100414E-11-6.88804800E-16    2! Hydrogen

-8.13065581E+02-1.02432865E+00 2.34433112E+00 7.98052075E-03-1.94781510E-05    3! CAS: 1333-74-0

 2.01572094E-08-7.37611761E-12-9.17935173E+02 6.83010238E-01 0.00000000E+00    4! Reference element

O                 L 1/90O   1    0    0    0G   200.000  6000.000 1000.        1! Goos-Burcat-Ruscic-thermodatabase; Y. Tao 25.05.2012

 2.54363697E+00-2.73162486E-05-4.19029520E-09 4.95481845E-12-4.79553694E-16    2! Atomic oxygen

 2.92260120E+04 4.92229457E+00 3.16826710E+00-3.27931884E-03 6.64306396E-06    3! CAS:17778-80-2

-6.12806624E-09 2.11265971E-12 2.91222592E+04 2.05193346E+00 0.00203           4! 249.22916 +- 0.00203 kJ/mol ATcT 31.01.2011

O2                RUS 89O   2    0    0    0G   200.000  6000.000 1000.        1! Goos-Burcat-Ruscic-thermodatabase; Y. Tao 25.05.2012

 3.66096065E+00 6.56365811E-04-1.41149627E-07 2.05797935E-11-1.29913436E-15    2! Molecular oxygen

-1.21597718E+03 3.41536279E+00 3.78245636E+00-2.99673416E-03 9.84730201E-06    3! CAS: 7782-44-7

-9.68129509E-09 3.24372837E-12-1.06394356E+03 3.65767573E+00 0.00000000E+00    4! Reference element

C                 L 7/88C   1    0    0    0G   200.000  6000.000 1000.        1! Goos-Burcat-Ruscic-thermodatabase; Y. Tao 25.05.2012

 0.26055830E+01-0.19593434E-03 0.10673722E-06-0.16423940E-10 0.81870580E-15    2! Carbon atom

 0.85411742E+05 0.41923868E+01 0.25542395E+01-0.32153772E-03 0.73379223E-06    3! CAS 7440-44-0

-0.73223487E-09 0.26652144E-12 0.85442681E+05 0.45313085E+01 0.0555            4! 716.8734 +- 0.0555 kJ/mol ATcT 31.01.2011

CO                RUS 79C   1O   1    0    0G   200.000  6000.000  1000.       1! Goos-Burcat-Ruscic-thermodatabase; Y. Tao 25.05.2012

 0.30484859E+01 0.13517281E-02-0.48579405E-06 0.78853644E-10-0.46980746E-14    2! Carbon monoxide

-0.14266117E+05 0.60170977E+01 0.35795335E+01-0.61035369E-03 0.10168143E-05    3! CAS 630-08-0

 0.90700586E-09-0.90442449E-12-0.14344086E+05 0.35084093E+01 0.0251            4! -110.525 +- 0.0251 kJ/mol ATcT 31.01.2011

CO2               L 7/88C   1O   2    0    0G   200.000  6000.000  1000.       1! Goos-Burcat-Ruscic-thermodatabase; Y. Tao 25.05.2012

 0.46365111E+01 0.27414569E-02-0.99589759E-06 0.16038666E-09-0.91619857E-14    2! Carbon dioxide

-0.49024904E+05-0.19348955E+01 0.23568130E+01 0.89841299E-02-0.71220632E-05    3! CAS 124-38-9

 0.24573008E-08-0.14288548E-12-0.48371971E+05 0.99009035E+01 0.014             4! -393.4743 +- 0.014 kJ/mol ATcT 31.01.2011

OH                IU3/03O   1H   1    0    0G   200.000  6000.000 1000.        1! Goos-Burcat-Ruscic-thermodatabase; Y. Tao 25.05.2012

 2.83853033E+00 1.10741289E-03-2.94000209E-07 4.20698729E-11-2.42289890E-15    2! Hydroxyl radical

 3.69780808E+03 5.84494652E+00 3.99198424E+00-2.40106655E-03 4.61664033E-06    3! CAS: 3352-57-6

-3.87916306E-09 1.36319502E-12 3.36889836E+03-1.03998477E-01 0.0259            4! 37.5011 +- 0.0259 kJ/mol ATcT 31.01.2011

HO2               T 1/09H   1O   2    0    0G   200.000  5000.000 1000.        1! Goos-Burcat-Ruscic-thermodatabase; Y. Tao 25.05.2012

 4.17228741E+00 1.88117627E-03-3.46277286E-07 1.94657549E-11 1.76256905E-16    2! Perhydroxyl radical 

 3.10206839E+01 2.95767672E+00 4.30179807E+00-4.74912097E-03 2.11582905E-05    3! CAS: 3170-83-0

-2.42763914E-08 9.29225225E-12 2.64018485E+02 3.71666220E+00 0.157             4! 12.271 +- 0.157 kJ/mol ATcT 31.01.2011

H2O               L 5/89H   2O   1    0    0G   200.000  6000.000 1000.        1! Goos-Burcat-Ruscic-thermodatabase; Y. Tao 25.05.2012

 0.26770389E+01 0.29731816E-02-0.77376889E-06 0.94433514E-10-0.42689991E-14    2! Water(v)

-0.29885894E+05 0.68825500E+01 0.41986352E+01-0.20364017E-02 0.65203416E-05    3! CAS: 7732-18-5

-0.54879269E-08 0.17719680E-11-0.30293726E+05-0.84900901E+00 0.0259            4! -241.8222 +- 0.0259 kJ/mol ATcT 31.01.2011

H2O2              T 8/03H   2O   2    0    0G   200.000  6000.000 1000.        1! Goos-Burcat-Ruscic-thermodatabase; Y. Tao 25.05.2012

 4.57977305E+00 4.05326003E-03-1.29844730E-06 1.98211400E-10-1.13968792E-14    2! Hydrogen peroxide

-1.80071775E+04 6.64970694E-01 4.31515149E+00-8.47390622E-04 1.76404323E-05    3! CAS 7722-84-1

-2.26762944E-08 9.08950158E-12-1.77067437E+04 3.27373319E+00 0.0622            4! -135.4416 +- 0.0622 kJ/mol ATcT 31.01.2011

N2                G 8/02N   2    0    0    0G   200.000  6000.000 1000.        1! Goos-Burcat-Ruscic-thermodatabase; Y. Tao 25.05.2012

 2.95257637E+00 1.39690040E-03-4.92631603E-07 7.86010195E-11-4.60755204E-15    2! Nitrogen

-9.23948688E+02 5.87188762E+00 3.53100528E+00-1.23660988E-04-5.02999433E-07    3! CAS:7727-37-9

 2.43530612E-09-1.40881235E-12-1.04697628E+03 2.96747038E+00 0.00000000E+00    4! Reference element

Ar                g 5/97Ar  1    0    0    0G   200.000  6000.000 1000.        1! Goos-Burcat-Ruscic-thermodatabase; Y. Tao 25.05.2012

 2.50000000E+00 0.00000000E+00 0.00000000E+00 0.00000000E+00 0.00000000E+00    2! Argon

-7.45375000E+02 4.37967491E+00 2.50000000E+00 0.00000000E+00 0.00000000E+00    3! CAS: 7440-37-1

 0.00000000E+00 0.00000000E+00-7.45375000E+02 4.37967491E+00 0.00000000E+00    4! Reference element

N                 ATcT3EN   1    0    0    0G    200.00   6000.00 1000.00      1

 2.41604245E+00 1.74663766E-04-1.18864562E-07 3.01850054E-11-2.03260159E-15    2

 5.61051512E+04 4.64905706E+00 2.49976643E+00 5.02149594E-07 1.93091211E-09    3

-4.94632629E-12 2.74089506E-15 5.60760710E+04 4.19499326E+00 5.68214750E+04    4

!!!!!----------http://garfield.chem.elte.hu/Burcat/THERM.DAT----------!!!!!

Al(l) REF ELEMEN  T 3/10Al 1.   0.   0.   0.L   300.000  6000.000 933.610      1

 3.83089866E+00-2.09027129E-05 1.04271684E-08-2.04841051E-12 1.39565517E-16    2

-9.97961566E+01-1.75914374E+01 3.82018990E+00-1.67563330E-06 0.00000000E+00    3

 0.00000000E+00 0.00000000E+00-9.57094068E+01-1.75321254E+01 0.00000000E+00    4

Al                g12/97Al 1.   0.   0.   0.G   200.000  6000.000 1000.        1

 2.53152311E+00-4.16002811E-05 2.40955537E-08-7.15420953E-12 8.68511135E-16    2

 3.89410793E+04 5.39170504E+00 3.11146855E+00-3.57363458E-03 8.02692389E-06    3

-7.89637203E-09 2.83934686E-12 3.88641504E+04 2.83632371E+00 3.96896510E+04    4

AlO               tpis96Al 1.O  1.   0.   0.G   200.000  6000.000 1000.        1

 2.87812691E+00 1.96920280E-03-3.86303536E-07 7.31791832E-12 2.48454782E-15    2

 7.28872515E+03 9.56556843E+00 3.34913178E+00-7.30811097E-05 7.10157373E-06    3

-1.06139198E-08 4.70712402E-12 7.05728468E+03 6.97458001E+00 8.09656925E+03    4

AlO2              tpis96Al 1.O  2.   0.   0.G   200.000  6000.000 1000.        1

 6.82788443E+00 7.33105641E-04-3.13759379E-07 5.96366292E-11-3.91258986E-15    2

-6.86225611E+03-7.06432998E+00 4.34294502E+00 8.65076281E-03-8.91492593E-06    3

 3.12927133E-09 9.49015044E-14-6.25626126E+03 5.43603439E+00-4.64944681E+03    4

AlO3              gpop  Al  1O   3          G   200.00   5000.00  1000.00      1

 8.32477413E+00 1.92240636E-03-8.61233592E-07 1.70252808E-10-1.23449944E-14    2

-1.99451523E+04-1.38008090E+01 3.87221493E+00 1.75644971E-02-2.22757491E-05    3

 1.37059561E-08-3.32306435E-12-1.88972486E+04 8.33732606E+00                   4

Al2               gpop  Al  2               G   200.00   5000.00  1000.00      1

 4.44633621E+00 6.64350686E-05-3.13397267E-08 6.42257658E-12-4.77794557E-16    2

 6.09418347E+04 3.12479668E+00 3.71552164E+00 4.42344638E-03-9.79759334E-06    3

 9.59079411E-09-3.44479246E-12 6.10423315E+04 6.36548851E+00                   4

Al2O              tpis96Al 2.O  1.   0.   0.G   200.000  6000.000 1000.        1

 6.83557723E+00 6.85036558E-04-2.69320700E-07 4.60912632E-11-2.87128689E-15    2

-2.00793927E+04-9.02360368E+00 4.07405095E+00 1.12981458E-02-1.66855499E-05    3

 1.20474407E-08-3.43957451E-12-1.94653414E+04 4.50607534E+00-1.78737275E+04    4

Al2O2             tpis96Al 2.O  2.   0.   0.G   200.000  6000.000 1000.        1

 9.14886135E+00 1.38425788E-03-5.42174706E-07 9.25638703E-11-5.75686436E-15    2

-5.15186949E+04-1.84651707E+01 4.83765565E+00 1.67010188E-02-2.23411191E-05    3

 1.48421603E-08-3.96196410E-12-5.04957125E+04 2.97081413E+00-4.84809794E+04    4

Al2O3             gpop  Al  2O   3          G   200.00   5000.00  1000.00      1

 1.10850408E+01 2.23504287E-03-1.01191719E-06 2.01441179E-10-1.46774211E-14    2

-6.94204309E+04-2.67030084E+01 1.48092630E+00 4.25506255E-02-6.79778922E-05    3

 5.16641177E-08-1.52228471E-11-6.74761512E+04 1.94550859E+01                   4

Al2O4             gpop  Al  2O   4          G   200.00   5000.00  1000.00      1

 1.37942873E+01 2.57896315E-03-1.16908606E-06 2.32937818E-10-1.69834600E-14    2

-9.63892129E+04-3.90496141E+01 2.12458600E+00 5.28537706E-02-8.71210270E-05    3

 6.82419803E-08-2.06791912E-11-9.40760874E+04 1.67588607E+01                   4

Al2(1)            gpop  Al  2               G   200.00   5000.00  1000.00      1

 4.46190253E+00 4.75910516E-05-2.26084322E-08 4.65945740E-12-3.48235900E-16    2

 6.46445696E+04 2.33820809E+00 3.92615217E+00 3.28602433E-03-7.34744447E-06    3

 7.23599767E-09-2.60953332E-12 6.47167178E+04 4.70487544E+00                   4

Al2O(3)           gpop  Al  2O   1          G   200.00   5000.00  1000.00      1

 6.37425217E+00 7.32663224E-04-3.32366728E-07 6.62486064E-11-4.83121377E-15    2

 1.21965876E+04-3.89769014E+00 2.86604084E+00 1.58819595E-02-2.62049601E-05    3

 2.04584346E-08-6.16550874E-12 1.28884376E+04 1.28659497E+01                   4

Al2O2(3)          gpop  Al  2O   2          G   200.00   5000.00  1000.00      1

 8.59160066E+00 1.64948219E-03-7.48460256E-07 1.49220031E-10-1.08842185E-14    2

-4.45150329E+04-1.64080153E+01 6.98448430E-01 3.57054112E-02-5.88340022E-05    3

 4.58559461E-08-1.37948451E-11-4.29578872E+04 2.13132055E+01                   4

Al2O3(1)          gpop  Al  2O   3          G   200.00   5000.00  1000.00      1

 1.13333317E+01 2.47851605E-03-1.10823438E-06 2.18808911E-10-1.58523571E-14    2

-6.72432429E+04-2.75679922E+01 6.40419242E+00 1.87292059E-02-2.15235336E-05    3

 1.17588402E-08-2.46213496E-12-6.60301001E+04-2.79685094E+00                   4

Al2O4(1)          gpop  Al  2O   4          G   200.00   5000.00  1000.00      1

 1.35722297E+01 2.82662575E-03-1.27773477E-06 2.54085020E-10-1.84992061E-14    2

-9.56612371E+04-3.94642104E+01 2.37218477E+00 4.86430062E-02-7.53488978E-05    3

 5.56991225E-08-1.60087092E-11-9.33422121E+04 1.46380333E+01                   4

AlCO2             gpop  Al  1C   1O   2     G   200.00   5000.00  1000.00      1

 7.59953704E+00 2.70744682E-03-1.20041363E-06 2.35744096E-10-1.70184746E-14    2

-1.93325258E+04-1.05752067E+01 4.18000088E+00 1.29199191E-02-1.28326475E-05    3

 6.39165067E-09-1.33362726E-12-1.84174694E+04 6.92694023E+00                   4

Al2CO2            gpop  Al  2C   1O   2     G   200.00   5000.00  1000.00      1

 1.04791497E+01 2.78233927E-03-1.21864199E-06 2.37569203E-10-1.70693567E-14    2

-1.81742264E+04-1.85528387E+01 5.01185634E+00 2.85721788E-02-5.12990832E-05    3

 4.55451231E-08-1.55667282E-11-1.71253291E+04 7.24916390E+00                   4

Al2CO2(1)         gpop  Al  2C   1O   2     G   200.00   5000.00  1000.00      1

 1.03942695E+01 2.95586337E-03-1.31542646E-06 2.58978621E-10-1.87286249E-14    2

-1.71125710E+04-1.97026002E+01 5.25003151E+00 2.15018011E-02-2.88564376E-05    3

 2.02954288E-08-5.91586745E-12-1.58906496E+04 5.85257282E+00                   4

Al2CO3            gpop  Al  2C   1O   3     G   200.00   5000.00  1000.00      1

 1.29801698E+01 3.47090006E-03-1.55609761E-06 3.07730886E-10-2.23182556E-14    2

-7.14869019E+04-3.40445721E+01 4.53457356E+00 3.17418509E-02-3.65456625E-05    3

 1.86156196E-08-3.16599667E-12-6.94618293E+04 8.20266157E+00                   4

Al2CO4            gpop  Al  2C   1O   4     G   200.00   5000.00  1000.00      1

 1.42548127E+01 5.34882367E-03-2.37048061E-06 4.65359768E-10-3.35848099E-14    2

-1.20790209E+05-4.07030436E+01 3.56836793E+00 4.16814506E-02-4.90143780E-05    3

 2.67304133E-08-5.30092309E-12-1.18234908E+05 1.26674405E+01                   4



Al2O3             tpis96Al 2.O  3.   0.   0.G   200.000  6000.000 1000.        1

 1.18224768E+01 1.72547969E-03-6.77407352E-07 1.15824576E-10-7.21083594E-15    2

-6.97100145E+04-3.05568543E+01 5.63487396E+00 2.44276632E-02-3.39723369E-05    3

 2.31682578E-08-6.27929522E-12-6.82838850E+04 1.47501030E-02-6.57754372E+04    4

!Al2O3L          coda89Al 2.O  3.   0.   0.L  2327.000  6000.000 2327.        1

! 1.95922550E+01 0.00000000E+00 0.00000000E+00 0.00000000E+00 0.00000000E+00    2

!-2.02769330E+05-1.10862203E+02 0.00000000E+00 0.00000000E+00 0.00000000E+00    3

! 0.00000000E+00 0.00000000E+00 0.00000000E+00 0.00000000E+00-2.01539237E+05    4

Al2O3L            coda89Al 2.O  3.   0.   0.L   300.000  6000.000 2327.        1

 1.95922550E+01 0.00000000E+00 0.00000000E+00 0.00000000E+00 0.00000000E+00    2

-2.02769330E+05-1.10862203E+02 1.95922550E+01 0.00000000E+00 0.00000000E+00    3

 0.00000000E+00 0.00000000E+00-2.02769330E+05-1.10862203E+02-2.01539237E+05    4

AlH               tpis96Al 1.H  1.   0.   0.G   200.000  6000.000 1000.        1

 3.72478578E+00 6.32386825E-04-1.99391646E-07 6.60158703E-11-7.21970753E-15    2

 2.87183821E+04 9.31030764E-01 3.76320123E+00-2.70563006E-03 8.64901458E-06    3

-8.03343301E-09 2.54342437E-12 2.89142397E+04 1.64163525E+00 2.99777200E+04    4

AlH2              tpis96Al 1.H  2.   0.   0.G   200.000  6000.000 1000.        1

 4.20321491E+00 2.48970278E-03-8.65811719E-07 1.44801835E-10-9.17041830E-15    2

 3.17523133E+04 6.17096798E-01 3.90104892E+00-3.77499788E-04 7.94189970E-06    3

-7.98141793E-09 2.47870649E-12 3.20861563E+04 3.25450304E+00 3.32880390E+04    4

AlH3              tpis96Al 1.H  3.   0.   0.G   200.000  6000.000 1000.        1

 4.77952816E+00 5.04053806E-03-1.90509863E-06 3.17881627E-10-1.94638230E-14    2

 1.35169049E+04-4.58490499E+00 3.56061877E+00 6.20469167E-04 1.79093902E-05    3

-2.20570753E-08 8.17998251E-12 1.42948690E+04 3.75630461E+00 1.55025468E+04    4

AlOH              tpis96Al 1.O  1.H  1.   0.G   200.000  6000.000 1000.        1

 5.32035107E+00 1.53749698E-03-4.62221050E-07 6.51648148E-11-3.51601741E-15    2

-2.48827925E+04-4.10769440E+00 1.88637866E+00 1.91500884E-02-3.44896279E-05    3

 2.93417132E-08-9.43127661E-12-2.43462318E+04 1.16125493E+01-2.31838282E+04    4

Al(OH)2           tpis96Al 1.O  2.H  2.   0.G   200.000  6000.000 1000.        1

 7.67252253E+00 4.33904584E-03-1.46690173E-06 2.27015022E-10-1.31860920E-14    2

-6.37362268E+04-1.12469223E+01 3.12169780E+00 2.08985897E-02-2.34949733E-05    3

 1.23527678E-08-2.11958634E-12-6.27326416E+04 1.11282357E+01-6.10571964E+04    4

Al(OH)3           tpis96Al 1.O  3.H  3.   0.G   200.000  6000.000 1000.        1

 1.07841409E+01 6.73871426E-03-2.29049596E-06 3.55913834E-10-2.07364574E-14    2

-1.25642999E+05-2.79335863E+01 2.86865635E+00 3.70565797E-02-4.65979938E-05    3

 2.91953582E-08-6.95506390E-12-1.23940276E+05 1.07009611E+01-1.21795216E+05    4

AlO2H             tpis96H  1.Al 1.O  2.   0.G   200.000  6000.000 1000.        1

 6.72666854E+00 2.68102358E-03-9.13402599E-07 1.42409710E-10-8.32520174E-15    2

-4.50977250E+04-8.97898955E+00 2.60717448E+00 1.63507673E-02-1.69042752E-05    3

 7.16362780E-09-5.88920373E-13-4.41219974E+04 1.16079026E+01-4.27533975E+04    4

!!!!!----------GRI-Mech3.0----------!!!!!

!O                 L 1/90O   1               G   200.000  3500.000  1000.000    1

! 2.56942078E+00-8.59741137E-05 4.19484589E-08-1.00177799E-11 1.22833691E-15    2

! 2.92175791E+04 4.78433864E+00 3.16826710E+00-3.27931884E-03 6.64306396E-06    3

!-6.12806624E-09 2.11265971E-12 2.91222592E+04 2.05193346E+00                   4

!O2                TPIS89O   2               G   200.000  3500.000  1000.000    1

! 3.28253784E+00 1.48308754E-03-7.57966669E-07 2.09470555E-10-2.16717794E-14    2

!-1.08845772E+03 5.45323129E+00 3.78245636E+00-2.99673416E-03 9.84730201E-06    3

!-9.68129509E-09 3.24372837E-12-1.06394356E+03 3.65767573E+00                   4

!N2                121286N   2               G   300.000  5000.000  1000.000    1

! 0.02926640E+02 0.14879768E-02-0.05684760E-05 0.10097038E-09-0.06753351E-13    2

!-0.09227977E+04 0.05980528E+02 0.03298677E+02 0.14082404E-02-0.03963222E-04    3

! 0.05641515E-07-0.02444854E-10-0.10208999E+04 0.03950372E+02                   4

!Ar                120186Ar  1               G   300.000  5000.000  1000.000    1

! 0.02500000E+02 0.00000000E+00 0.00000000E+00 0.00000000E+00 0.00000000E+00    2

!-0.07453750E+04 0.04366000E+02 0.02500000E+02 0.00000000E+00 0.00000000E+00    3

! 0.00000000E+00 0.00000000E+00-0.07453750E+04 0.04366000E+02                   4

!!!!!----------SURFACE DUMMY----------!!!!!

!Al(S)             DUMMY Al  1O   0          G   200.000  6000.000 1000.        1

! 0.00000000E+00 0.00000000E+00 0.00000000E+00 0.00000000E+00 0.00000000E+00    2

! 0.00000000E+00 0.00000000E+00 0.00000000E+00 0.00000000E+00 0.00000000E+00    3

! 0.00000000E+00 0.00000000E+00 0.00000000E+00 0.00000000E+00                   4

!O(S)              DUMMY Al  0O   1          G   200.000  6000.000 1000.        1

! 0.00000000E+00 0.00000000E+00 0.00000000E+00 0.00000000E+00 0.00000000E+00    2

! 0.00000000E+00 0.00000000E+00 0.00000000E+00 0.00000000E+00 0.00000000E+00    3

! 0.00000000E+00 0.00000000E+00 0.00000000E+00 0.00000000E+00                   4

!AlO(S)            DUMMY Al  1O   1          G   200.000  6000.000 1000.        1

! 0.00000000E+00 0.00000000E+00 0.00000000E+00 0.00000000E+00 0.00000000E+00    2

! 0.00000000E+00 0.00000000E+00 0.00000000E+00 0.00000000E+00 0.00000000E+00    3

! 0.00000000E+00 0.00000000E+00 0.00000000E+00 0.00000000E+00                   4

!Al2O(S)           DUMMY Al  2O   1          G   200.000  6000.000 1000.        1

! 0.00000000E+00 0.00000000E+00 0.00000000E+00 0.00000000E+00 0.00000000E+00    2

! 0.00000000E+00 0.00000000E+00 0.00000000E+00 0.00000000E+00 0.00000000E+00    3

! 0.00000000E+00 0.00000000E+00 0.00000000E+00 0.00000000E+00                   4

!Al2O2(S)          DUMMY Al  2O   2          G   200.000  6000.000 1000.        1

! 0.00000000E+00 0.00000000E+00 0.00000000E+00 0.00000000E+00 0.00000000E+00    2

! 0.00000000E+00 0.00000000E+00 0.00000000E+00 0.00000000E+00 0.00000000E+00    3

! 0.00000000E+00 0.00000000E+00 0.00000000E+00 0.00000000E+00                   4

!AlO2(S)           DUMMY Al  1O   2          G   200.000  6000.000 1000.        1

! 0.00000000E+00 0.00000000E+00 0.00000000E+00 0.00000000E+00 0.00000000E+00    2

! 0.00000000E+00 0.00000000E+00 0.00000000E+00 0.00000000E+00 0.00000000E+00    3

! 0.00000000E+00 0.00000000E+00 0.00000000E+00 0.00000000E+00                   4

!Al(D)             DUMMY Al  1O   0          G   200.000  6000.000 1000.        1

! 0.00000000E+00 0.00000000E+00 0.00000000E+00 0.00000000E+00 0.00000000E+00    2

! 0.00000000E+00 0.00000000E+00 0.00000000E+00 0.00000000E+00 0.00000000E+00    3

! 0.00000000E+00 0.00000000E+00 0.00000000E+00 0.00000000E+00                   4

!Al2O3(D)          DUMMY Al  2O   3          G   200.000  6000.000 1000.        1

! 0.00000000E+00 0.00000000E+00 0.00000000E+00 0.00000000E+00 0.00000000E+00    2

! 0.00000000E+00 0.00000000E+00 0.00000000E+00 0.00000000E+00 0.00000000E+00    3

! 0.00000000E+00 0.00000000E+00 0.00000000E+00 0.00000000E+00                   4

Al(S)             J 3/67Al  1               L   933.61   5000.000 1000.000     1

 3.81862551E+00 0.00000000E+00 0.00000000E+00 0.00000000E+00 0.00000000E+00    2

-9.49651808E+01-1.75229704E+01 3.81862551E+00 0.00000000E+00 0.00000000E+00    3

 0.00000000E+00 0.00000000E+00-9.49651808E+01-1.75229704E+01                   4

Al(D)             J 3/67Al  1               L   933.61   6000.000 1000.000     1

 3.81862551E+00 0.00000000E+00 0.00000000E+00 0.00000000E+00 0.00000000E+00    2

-9.49651808E+01-1.75229704E+01 3.81862551E+00 0.00000000E+00 0.00000000E+00    3

 0.00000000E+00 0.00000000E+00-9.49651808E+01-1.75229704E+01                   4

AlO(S)                  Al  1O   1          L   298.150  5000.000 1000.00      1

 3.13304008E+00 1.38690021E-03 6.55228160E-08-1.27932320E-10 1.56159681E-14    2

-1.19724161E+04 8.18060445E+00 1.03022500E+00 1.60514810E-02-3.13113292E-05    3

 2.70432895E-08-8.34051961E-12-1.18645191E+04 1.67621416E+01                   4

AlO2(S)                 Al  1O   2          L   298.150  5000.000 1000.00      1

 6.44281286E+00 1.25699978E-03-5.79816622E-07 1.16816104E-10-8.37031429E-15    2

-1.01765392E+05-7.89346288E+00 3.28073609E+00 1.21627259E-02-1.43245345E-05    3

 7.53738041E-09-1.42786616E-12-1.01045848E+05 7.79737492E+00                   4

Al2O(S)                 Al  2O   1          L   298.150  5000.000 1000.00      1

 6.04014638E+00 1.11717053E-03-5.04755647E-07 1.00450835E-10-7.33261066E-15    2

-3.28113608E+04-3.88880172E+00 3.48108363E+00 9.28089164E-03-9.64154252E-06    3

 4.11911221E-09-4.93865488E-13-3.21959217E+04 8.97532922E+00                   4

Al2O2(S)                Al  2O   2          L   298.150  5000.000 1000.00      1

 7.51391121E+00 2.87404647E-03-1.29257074E-06 2.56396733E-10-1.86729462E-14    2

-8.64969914E+04-1.24088924E+01 2.05534593E+00 1.84579500E-02-1.52928896E-05    3

 3.33958502E-09 7.73119385E-13-8.50927604E+04 1.54881191E+01                   4

Al2O3(D)          J12/79Al  2O   3          L   300.000  2327.000 1000.00      1

 1.18336660E+01 3.77088780E-03-1.78631910E-07-5.60088070E-10 1.40768250E-13    2

-2.05711310E+05-6.35998350E+01-4.91383090E+00 7.93984430E-02-1.32379180E-04    3

 1.04467500E-07-3.15663300E-11-2.02626220E+05 1.54780730E+01                   4

Al2O3(S)          J12/79Al  2O   3          L   300.000  2327.000 1000.00      1

 1.18336660E+01 3.77088780E-03-1.78631910E-07-5.60088070E-10 1.40768250E-13    2

-2.05711310E+05-6.35998350E+01-4.91383090E+00 7.93984430E-02-1.32379180E-04    3

 1.04467500E-07-3.15663300E-11-2.02626220E+05 1.54780730E+01                   4

O(S)                         O   1          L   298.150  5000.000 1000.00      1

 2.55347230E+00-4.53453938E-05 6.49525481E-09 2.40993201E-12-2.67686341E-16    2

-6.66692894E+04 4.85546407E+00 2.93580437E+00-1.57039962E-03 2.28766551E-06    3

-1.51409618E-09 3.77790328E-13-6.67459696E+04 3.00986433E+00                   4

O(D)                         O   1          L   298.150  5000.000 1000.00      1

 2.55347230E+00-4.53453938E-05 6.49525481E-09 2.40993201E-12-2.67686341E-16    2

-6.66692894E+04 4.85546407E+00 2.93580437E+00-1.57039962E-03 2.28766551E-06    3

-1.51409618E-09 3.77790328E-13-6.67459696E+04 3.00986433E+00                   4

H(S)                         H   1          L   298.150  5000.000 1000.00      1

 2.50004403E+00 0.00000000E+00 0.00000000E+00 0.00000000E+00 0.00000000E+00    2

-6.78414183E+03-4.59780885E-01 2.50004403E+00 0.00000000E+00 0.00000000E+00    3

 0.00000000E+00 0.00000000E+00-6.78414183E+03-4.59780885E-01                   4

N(S)                         N   1          L   298.150  5000.000 1000.00      1

 2.44657010E+00 1.14840824E-04-8.00703069E-08 2.02433033E-11-1.16011652E-15    2

-4.65216356E+04 4.46892448E+00 2.46242003E+00 2.61504933E-04-6.15162249E-07    3

 5.87035118E-10-1.95374033E-13-4.65353088E+04 4.33994174E+00                   4

C(S)                         C   1          L   298.150  5000.000 1000.00      1

 2.62727919E+00-2.13910339E-04 1.08311299E-07-1.51486418E-11 6.05116464E-16    2

-2.93210403E+02 4.05828831E+00 2.51705186E+00-4.94632456E-05 7.33566619E-08    3

-5.71654507E-11 1.71999518E-14-2.45574302E+02 4.68332447E+00                   4

AlH(S)                       H   1Al  1     L   298.150  5000.000 1000.00      1

 3.25775389E+00 1.42862701E-03-5.83040388E-07 1.12738955E-10-8.06811488E-15    2

 8.99194298E+03 3.52679997E+00 3.76921810E+00-2.88033818E-03 9.27506988E-06    3

-8.72244288E-09 2.76650443E-12 9.00280555E+03 1.62505786E+00                   4

AlN(S)                       N   1Al  1     L   298.150  5000.000 1000.00      1

 4.11652065E+00 5.30380923E-04-2.25589963E-07 4.67414086E-11-3.32269054E-15    2

-1.28803275E+04 3.74536478E+00 2.84933365E+00 5.07748984E-03-6.26379474E-06    3

 3.55057220E-09-7.48870624E-13-1.26008082E+04 9.98921928E+00                   4

CO(S)                        O   1C   1     L   298.150  5000.000 1000.00      1

 2.98745045E+00 1.44840252E-03-5.38051181E-07 9.05306273E-11-5.62158045E-15    2

-1.65451571E+04 6.36409552E+00 4.00378841E+00-3.71284595E-03 8.84766641E-06    3

-7.26251103E-09 2.10661298E-12-1.66936298E+04 1.73482647E+00                   4

CO2(S)                       O   2C   1     L   298.150  5000.000 1000.00      1

 4.32000371E+00 3.35161431E-03-1.39285542E-06 2.65014319E-10-1.87192608E-14    2

-4.93799871E+04-1.94795791E-01 2.96210105E+00 4.95828738E-03 1.93454134E-06    3

-5.77818777E-09 2.44831566E-12-4.89171597E+04 7.31253401E+00                   4

OH(S)                        H   1O   1     L   298.150  5000.000 1000.00      1

 2.92514201E+00 9.47192009E-04-1.91602787E-07 1.36920802E-11 1.23311022E-16    2

-4.05765664E+04 5.35490431E+00 3.41933887E+00 1.76327138E-03-5.60502205E-06    3

 6.41550507E-09-2.29854664E-12-4.08150492E+04 2.27247343E+00                   4

H2O(S)                       H   2O   1     L   298.150  5000.000 1000.00      1

 2.67665975E+00 3.04948829E-03-8.69339051E-07 1.19270942E-10-6.32555425E-15    2

-3.30205457E+04 6.83786509E+00 3.36343257E+00 3.64382514E-03-6.77298657E-06    3

 7.39646411E-09-2.66098088E-12-3.33249717E+04 2.68922616E+00                   4

H(D)                         H   1          L   298.150  5000.000 1000.00      1

 2.50004403E+00 0.00000000E+00 0.00000000E+00 0.00000000E+00 0.00000000E+00    2

-6.78414183E+03-4.59780885E-01 2.50004403E+00 0.00000000E+00 0.00000000E+00    3

 0.00000000E+00 0.00000000E+00-6.78414183E+03-4.59780885E-01                   4

Al4C3(D)                Al  4C   3          L   298.000  3500.000 1000.00      1

-2.62064480e-01 4.34877967e-02-3.12450798e-05 9.97733862e-09-1.17384236e-12    2  

 1.00014112e+00 3.78420786e+00-2.25044074e+01 2.29027290e-01-4.86927126e-04    3

 4.67850414e-07-1.66640878e-10 1.00103207e+00 8.84651045e+01                   4



!AlN                     Al  1N   1          L   298.000  3500.000 1000.00      1

! 4.11652065E+00 5.30380923E-04-2.25589963E-07 4.67414086E-11-3.32269054E-15    2

! 6.15976348E+04 3.74536478E+00 2.84933365E+00 5.07748984E-03-6.26379474E-06    3

! 3.55057220E-09-7.48870624E-13 6.18771542E+04 9.98921928E+00                   4

END

